Metadata-Version: 2.1
Name: pyOpenFAST
Version: 0.1.0
Summary: A Python wrapper for OpenFAST.
Home-page: https://github.com/rafmudaf/pyOpenFAST
Author: NREL National Wind Technology Center
Author-email: rafael.mudafort@nrel.gov
License: Apache-2.0
Description: A Python wrapper for OpenFAST.
Platform: UNKNOWN
Classifier: License :: OSI Approved :: Apache Software License
Classifier: Programming Language :: Python
Classifier: Programming Language :: Python :: 3
Classifier: Programming Language :: Python :: 3.6
Classifier: Programming Language :: Python :: Implementation :: CPython
Classifier: Programming Language :: Python :: Implementation :: PyPy
Requires-Python: >=3.3.0
Description-Content-Type: text/markdown
